
*** ChampSim Multicore Out-of-Order Simulator ***

Warmup Instructions: 30000000
Simulation Instructions: 60000000
Number of CPUs: 1
LLC sets: 2048
LLC ways: 16
Off-chip DRAM Size: 4096 MB Channels: 1 Width: 64-bit Data Rate: 3200 MT/s

CPU 0 runs /home/rahulkumar/coding/code/iitb_cs/cs232_comp_architecture/project/ChampSim/dpc3_traces/sssp-5.trace.gz
CPU 0 Bimodal branch predictor
LLC Next Line Prefetcher
[L2C_MSHR] return_data instr_id: 128684 cannot find a matching entry! full_addr: 28e837c6b380 address: a3a0df1ace event: 42979 current: 42979
bimodal-no-no-no-next_line-lru-1core: src/cache.cc:1998: virtual void CACHE::return_data(PACKET*): Assertion `0' failed.
