
*** ChampSim Multicore Out-of-Order Simulator ***

Warmup Instructions: 2000000
Simulation Instructions: 4000000
Number of CPUs: 1
LLC sets: 2048
LLC ways: 16
Off-chip DRAM Size: 4096 MB Channels: 1 Width: 64-bit Data Rate: 3200 MT/s

CPU 0 runs /home/kanad/CS230/Project/project_cs232/dpc3_traces/sssp-5.trace.gz
CPU 0 Bimodal branch predictor
LLC Next Line Prefetcher

Warmup complete CPU 0 instructions: 2000003 cycles: 705549 (Simulation time: 0 hr 0 min 4 sec) 

